Version 4
SHEET 1 1732 680
WIRE 512 -144 288 -144
WIRE 1616 -144 1408 -144
WIRE 1408 -48 1408 -144
WIRE 1456 -48 1408 -48
WIRE 288 -32 288 -144
WIRE 384 -32 288 -32
WIRE 1616 -32 1616 -144
WIRE 1616 -32 1520 -32
WIRE 1728 -32 1616 -32
WIRE 512 -16 512 -144
WIRE 512 -16 448 -16
WIRE 592 -16 512 -16
WIRE 752 -16 672 -16
WIRE 896 -16 832 -16
WIRE 944 -16 896 -16
WIRE 1120 -16 1024 -16
WIRE 1312 -16 1200 -16
WIRE 1456 -16 1312 -16
WIRE 288 0 64 0
WIRE 384 0 288 0
WIRE 1312 0 1312 -16
WIRE 1312 16 1312 0
WIRE 896 32 896 -16
WIRE 64 80 64 0
WIRE 896 192 896 96
WIRE 1616 192 1616 -32
WIRE 1616 192 896 192
FLAG 64 160 0
FLAG 416 16 0
FLAG 368 464 0
FLAG 368 384 +9
FLAG 416 -48 +9
FLAG 1488 0 0
FLAG 1488 -64 +9
FLAG 496 464 0
FLAG 496 384 Vref
FLAG 288 80 Vref
FLAG 1312 64 0
SYMBOL Misc\\signal 64 64 R0
WINDOW 123 24 132 Left 2
WINDOW 39 0 0 Left 0
SYMATTR InstName V1
SYMATTR Value2 AC 1
SYMBOL OpAmps\\UniversalOpAmp 416 -16 R0
SYMATTR InstName U1
SYMBOL voltage 368 368 R0
WINDOW 123 0 0 Left 0
WINDOW 39 0 0 Left 0
SYMATTR InstName V2
SYMATTR Value 9
SYMBOL OpAmps\\UniversalOpAmp 1488 -32 R0
SYMATTR InstName U2
SYMBOL voltage 496 368 R0
WINDOW 123 0 0 Left 0
WINDOW 39 0 0 Left 0
SYMATTR InstName V3
SYMATTR Value 4.5
SYMBOL res 272 -16 R0
SYMATTR InstName R1
SYMATTR Value 1Meg
SYMBOL res 688 -32 R90
WINDOW 0 0 56 VBottom 2
WINDOW 3 32 56 VTop 2
SYMATTR InstName R2
SYMATTR Value 10k
SYMBOL res 848 -32 R90
WINDOW 0 0 56 VBottom 2
WINDOW 3 32 56 VTop 2
SYMATTR InstName R3
SYMATTR Value {R}
SYMBOL res 1040 -32 R90
WINDOW 0 0 56 VBottom 2
WINDOW 3 32 56 VTop 2
SYMATTR InstName R4
SYMATTR Value {R}
SYMBOL res 1216 -32 R90
WINDOW 0 0 56 VBottom 2
WINDOW 3 32 56 VTop 2
SYMATTR InstName R5
SYMATTR Value 10k
SYMBOL cap 1296 0 R0
SYMATTR InstName C1
SYMATTR Value 28n
SYMBOL cap 880 32 R0
SYMATTR InstName C2
SYMATTR Value 47n
TEXT 640 352 Left 2 !.step param R list 1 50k 80k
TEXT 640 384 Left 2 !.ac dec 20 20 20k
