Version 4
SHEET 1 952 680
WIRE 80 -1936 -240 -1936
WIRE -240 -1792 -240 -1936
WIRE -144 -1792 -240 -1792
WIRE 80 -1776 80 -1936
WIRE 80 -1776 -80 -1776
WIRE 208 -1776 80 -1776
WIRE -144 -1760 -336 -1760
WIRE 208 -1616 208 -1776
WIRE 208 -1616 96 -1616
WIRE 208 -1536 208 -1616
WIRE 96 -1520 96 -1616
WIRE 208 -1376 208 -1472
WIRE 224 -1376 208 -1376
WIRE 208 -1360 208 -1376
WIRE -256 -1296 -416 -1296
WIRE -128 -1296 -176 -1296
WIRE -48 -1296 -128 -1296
WIRE 96 -1296 96 -1440
WIRE 96 -1296 16 -1296
WIRE 160 -1296 96 -1296
WIRE -128 -1280 -128 -1296
WIRE -416 -1264 -416 -1296
WIRE 208 -1232 208 -1264
WIRE 208 -1136 208 -1168
WIRE 208 -1104 208 -1136
WIRE 144 -944 -176 -944
WIRE -176 -800 -176 -944
WIRE -80 -800 -176 -800
WIRE 144 -784 144 -944
WIRE 144 -784 -16 -784
WIRE 272 -784 144 -784
WIRE -80 -768 -272 -768
WIRE 272 -688 272 -784
WIRE 272 -544 272 -608
WIRE 272 -416 272 -480
WIRE 432 -416 272 -416
WIRE 272 -368 272 -416
WIRE -176 -304 -352 -304
WIRE 224 -304 -96 -304
WIRE -352 -272 -352 -304
WIRE 272 -176 272 -272
FLAG -416 -1760 0
FLAG 640 -1664 0
FLAG 768 -1664 0
FLAG 640 -1744 +15
FLAG 768 -1744 -15
FLAG -112 -1808 +15
FLAG -112 -1744 -15
FLAG 304 -1376 0
FLAG -416 -1184 0
FLAG -352 -768 0
FLAG -48 -816 +15
FLAG -48 -752 -15
FLAG -352 -192 0
FLAG 432 -416 Signal_out
FLAG 272 -176 0
FLAG -128 -1216 0
FLAG 208 -1104 Signalout
FLAG 128 -1136 0
SYMBOL Misc\\signal -416 -1280 R0
WINDOW 123 0 0 Left 0
WINDOW 39 0 0 Left 0
SYMATTR InstName V1
SYMATTR Value PULSE(-15 15 0 0.039 0.039 0.1 0.3)
SYMBOL njf 160 -1360 R0
SYMATTR InstName J3
SYMATTR Value J111
SYMBOL res -160 -1312 R90
WINDOW 0 0 56 VBottom 2
WINDOW 3 32 56 VTop 2
SYMATTR InstName R4
SYMATTR Value 100k
SYMBOL Misc\\signal -320 -1760 R90
WINDOW 0 24 104 Left 2
WINDOW 3 24 16 Left 2
WINDOW 123 0 0 Left 0
WINDOW 39 0 0 Left 0
SYMATTR InstName V5
SYMATTR Value SINE(0 1 100)
SYMBOL diode 16 -1312 R90
WINDOW 0 0 32 VBottom 2
WINDOW 3 32 32 VTop 2
SYMATTR InstName D3
SYMATTR Value 1N4148
SYMBOL polcap 192 -1232 R0
SYMATTR InstName C5
SYMATTR Value 22µ
SYMBOL OpAmps\\UniversalOpAmp -112 -1776 R0
SYMATTR InstName U1
SYMBOL voltage 640 -1760 R0
WINDOW 123 0 0 Left 0
WINDOW 39 0 0 Left 0
SYMATTR InstName V6
SYMATTR Value 15
SYMBOL voltage 768 -1760 R0
WINDOW 123 0 0 Left 0
WINDOW 39 0 0 Left 0
SYMATTR InstName V7
SYMATTR Value -15
SYMBOL res 80 -1536 R0
SYMATTR InstName R6
SYMATTR Value 100k
SYMBOL res 320 -1392 R90
WINDOW 0 0 56 VBottom 2
WINDOW 3 32 56 VTop 2
SYMATTR InstName R8
SYMATTR Value 47k
SYMBOL Misc\\signal -352 -288 R0
WINDOW 123 0 0 Left 0
WINDOW 39 0 0 Left 0
SYMATTR InstName V2
SYMATTR Value PULSE(-15 15 0 0.039 0.039 0.1 0.3)
SYMBOL njf 224 -368 R0
SYMATTR InstName J1
SYMATTR Value J111
SYMBOL Misc\\signal -256 -768 R90
WINDOW 0 24 104 Left 2
WINDOW 3 24 16 Left 2
WINDOW 123 0 0 Left 0
WINDOW 39 0 0 Left 0
SYMATTR InstName V3
SYMATTR Value SINE(0 1 100)
SYMBOL OpAmps\\UniversalOpAmp -48 -784 R0
SYMATTR InstName U2
SYMBOL polcap 256 -544 R0
SYMATTR InstName C2
SYMATTR Value 10µ
SYMBOL cap -144 -1280 R0
SYMATTR InstName C1
SYMATTR Value 100n
SYMBOL res -80 -320 R90
WINDOW 0 0 56 VBottom 2
WINDOW 3 32 56 VTop 2
SYMATTR InstName R1
SYMATTR Value 220k
SYMBOL res 256 -704 R0
SYMATTR InstName R2
SYMATTR Value 1k
SYMBOL polcap 192 -1536 R0
SYMATTR InstName C3
SYMATTR Value 22µ
SYMBOL res 224 -1152 R90
WINDOW 0 0 56 VBottom 2
WINDOW 3 32 56 VTop 2
SYMATTR InstName R3
SYMATTR Value 1Meg
TEXT -424 -1096 Left 2 !.tran 100
